14

C     -1.551010    0.345602   -0.004369
C     -0.541050   -0.542484   -0.678064
C      0.733497   -0.673800    0.122688
C      1.424153    0.623096    0.353392
H     -1.090420    0.887442    0.838944
H     -2.398264   -0.243461    0.451020
H     -2.053686    1.040802   -0.730022
H     -0.370061   -0.218305   -1.709892
H     -0.992187   -1.563087   -0.725780
H      0.428675   -1.075216    1.123882
H      1.404588   -1.421129   -0.333228
H      2.470809    0.383341    0.701304
H      0.968625    1.231270    1.161889
H      1.566329    1.225927   -0.571763
