26
Generated by autodE on: 2022-02-09. 
C     1.28141   1.94625   0.22210
N     1.18411   0.55609   0.57053
C     2.51817  -0.00983   0.27803
C     2.31793  -1.48053   0.44573
C     0.86592  -1.64708   0.05724
C     0.35979  -0.25043  -0.25743
C    -1.07361  -0.12353  -0.16403
C    -1.73534   1.07317  -0.15078
C    -3.12159   1.13539  -0.05631
C    -3.86963  -0.01058   0.02660
N    -3.21853  -1.18787   0.01325
C    -1.87390  -1.26308  -0.07793
H     0.73460   2.60356   0.95487
H     1.06943   2.18209  -0.82706
H     2.36500   2.24889   0.38545
H     2.69948   0.19397  -0.79773
H     3.27880   0.41665   0.94525
H     2.97654  -2.09038  -0.20424
H     2.52912  -1.73754   1.49546
H     0.77157  -2.33222  -0.79105
H     0.37704  -2.09038   0.94234
H     0.70215  -0.06448  -1.32149
H    -1.20225   2.01582  -0.21878
H    -3.62793   2.08011  -0.04677
H    -4.95800   0.04326   0.10071
H    -1.35027  -2.20732  -0.09158
