17
Generated by autodE on: 2022-02-09. 
C    -2.48810   0.36695  -0.18369
C    -1.22882  -0.42012  -0.06715
C     0.01790   0.42652   0.00604
C     1.19282  -0.53982   0.12122
C     2.50912   0.16197   0.20362
H    -2.88250   0.36013  -1.24037
H    -2.43147   1.39159   0.22888
H    -3.29854  -0.14362   0.40701
H    -1.26140  -1.14498   0.76968
H    -1.11779  -1.05026  -0.99539
H    -0.02677   1.12816   0.83709
H     0.18076   0.98226  -0.94000
H     1.18775  -1.15280  -0.80492
H     1.01577  -1.22186   0.98998
H     2.90617   0.30747  -0.82350
H     3.22850  -0.54194   0.69775
H     2.49658   1.09037   0.79375
