11

C      1.236619   -0.119454    0.029137
C     -0.051647    0.666438   -0.106900
C     -1.202062   -0.313859    0.059390
H      1.910123    0.154692   -0.805082
H      1.038204   -1.231360   -0.002289
H      1.695080    0.050270    1.031947
H     -0.110063    1.462132    0.661845
H     -0.114929    1.102176   -1.133383
H     -1.655962   -0.178312    1.050518
H     -1.915276   -0.213716   -0.781745
H     -0.830088   -1.379008   -0.003437
