19

O     -3.628424    1.531626   -0.495683
C     -2.385982    1.701956   -0.466805
C     -1.517298    0.558131   -0.191979
C     -2.033956   -0.700584    0.035607
C     -1.202875   -1.770178    0.293519
C      0.170236   -1.643929    0.337814
O      0.974900   -2.748838    0.601508
C      0.692396   -0.383125    0.110085
O      2.071030   -0.261450    0.155579
C      2.732101    0.952836   -0.055729
C     -0.143986    0.683383   -0.147475
H     -1.992683    2.673025   -0.642587
H     -3.123280   -0.810329    0.002391
H     -1.631446   -2.758042    0.470970
H      1.974955   -2.598739    0.622049
H      2.241197    1.584029   -0.831307
H      2.750882    1.597080    0.872280
H      3.786274    0.727531   -0.345507
H      0.265959    1.665617   -0.324731
