137

C         28.06135      -19.90552      -15.93979
C         27.54677      -20.97838      -16.91914
C         28.54422      -21.17159      -18.06955
C         28.88047      -19.81796      -18.72782
C         29.37938      -18.85681      -17.62934
C         29.77563      -17.48170      -18.21060
O         27.34299      -22.24442      -16.25840
O         27.96460      -22.09534      -19.00773
O         29.90983      -19.99910      -19.70953
O         28.34179      -18.68738      -16.64247
H         27.28423      -19.71018      -15.19527
H         26.57747      -20.66811      -17.32895
H         29.45643      -21.65959      -17.70286
H         27.98027      -19.39213      -19.19199
H         30.26120      -19.29326      -17.14591
H         27.14390      -22.86556      -16.99043
H         28.70526      -22.42186      -19.57022
C         31.59464      -20.82113      -12.24735
C         30.78325      -22.09126      -12.50114
C         30.02490      -21.93017      -13.80932
C         29.23977      -20.61064      -13.92250
C         29.90259      -19.40507      -13.20284
C         28.87350      -18.37991      -12.68743
O         31.64672      -23.23820      -12.60271
O         29.13504      -23.05492      -13.97022
O         29.25479      -20.38312      -15.34095
O         30.69248      -19.73918      -12.03882
O         27.97659      -17.92608      -13.68288
H         32.19052      -20.93811      -11.33608
H         30.08628      -22.27565      -11.67498
H         30.73475      -22.02770      -14.64236
H         28.21628      -20.77514      -13.56275
H         30.54808      -18.88057      -13.92037
H         28.28823      -18.81156      -11.86746
H         29.40404      -17.51382      -12.27369
H         31.05426      -23.96109      -12.90056
H         28.58975      -22.86138      -14.76622
H         27.58212      -17.09755      -13.35912
C         36.20509      -19.78558      -14.68336
C         35.92765      -21.25544      -14.35566
C         34.42453      -21.46407      -14.17596
C         33.82449      -20.47081      -13.16126
C         34.32280      -19.02890      -13.42089
C         33.99823      -18.07788      -12.25325
O         36.42989      -22.11914      -15.39344
O         34.22680      -22.82262      -13.73466
O         32.41062      -20.51460      -13.36735
O         35.74585      -18.96602      -13.61039
O         32.65685      -17.61200      -12.25213
H         37.28897      -19.64717      -14.76298
H         36.44614      -21.53596      -13.43055
H         33.90906      -21.39365      -15.14213
H         34.10046      -20.79856      -12.15131
H         33.81387      -18.63827      -14.30889
H         34.20880      -18.55091      -11.28785
H         34.64059      -17.19173      -12.30937
H         35.99571      -22.98096      -15.21898
H         32.06373      -18.38341      -12.20416
C         36.96843      -17.70302      -19.47938
C         37.88997      -18.73109      -18.79056
C         37.10403      -19.55971      -17.76528
C         36.34715      -18.63684      -16.78817
C         35.44727      -17.71053      -17.63699
C         34.56212      -16.79542      -16.76716
O         38.50944      -19.62941      -19.73382
O         38.03345      -20.42259      -17.08364
O         35.55239      -19.43293      -15.90465
O         36.29955      -16.90510      -18.48911
H         37.57446      -17.03667      -20.09836
H         38.70122      -18.20176      -18.27517
H         36.40587      -20.23267      -18.28004
H         37.05872      -18.02654      -16.21548
H         34.82028      -18.33942      -18.26252
H         38.96417      -20.28709      -19.16491
H         37.48833      -21.10970      -16.63459
C         34.03117      -19.23326      -23.45743
C         35.22139      -20.17982      -23.30645
C         35.89254      -19.92294      -21.96751
C         36.17176      -18.43802      -21.67209
C         35.17118      -17.44597      -22.32823
C         35.83335      -16.10828      -22.70861
O         34.80378      -21.55624      -23.35830
O         37.11549      -20.68849      -21.92611
O         35.98925      -18.37543      -20.24960
O         34.53518      -17.90329      -23.54319
O         36.50517      -15.48834      -21.62711
H         33.50359      -19.45138      -24.39186
H         35.93635      -20.02755      -24.12402
H         35.27268      -20.36236      -21.17372
H         37.20687      -18.19842      -21.94524
H         34.38469      -17.21327      -21.59775
H         36.55213      -16.25813      -23.52224
H         35.06733      -15.42072      -23.08745
H         35.60762      -22.05815      -23.10217
H         37.60293      -20.38204      -21.12673
H         36.58021      -14.54158      -21.83917
C         29.40180      -20.26106      -21.02397
C         30.15762      -21.42578      -21.66578
C         31.63198      -21.06407      -21.83151
C         31.81138      -19.72407      -22.57085
C         30.86312      -18.63751      -22.00070
C         30.78269      -17.40195      -22.91888
O         30.02512      -22.62382      -20.87664
O         32.24333      -22.14363      -22.56361
O         33.15895      -19.30789      -22.33976
O         29.51293      -19.10397      -21.84628
O         31.93950      -16.58209      -22.89441
H         28.33971      -20.52733      -20.98502
H         29.72751      -21.64658      -22.65084
H         32.13538      -21.04420      -20.85686
H         31.61013      -19.87778      -23.63824
H         31.24696      -18.30001      -21.03058
H         30.58428      -17.69926      -23.95466
H         29.93792      -16.77345      -22.61442
H         30.70855      -23.22535      -21.24310
H         33.18189      -21.89779      -22.72905
H         32.71446      -17.13950      -23.08897
C         31.09216      -15.76200      -16.93962
C         32.45848      -15.49578      -16.70576
N         31.00808      -16.97841      -17.61708
N         33.21170      -16.53866      -17.28484
C         32.30308      -17.48078      -17.79957
H         35.09587      -15.84391      -16.65555
H         34.44868      -17.20746      -15.76298
H         28.94511      -16.78048      -18.07762
H         29.94087      -17.53912      -19.29019
H         33.28268      -22.91480      -13.47587
C         32.85806      -14.35919      -16.02797
C         30.11210      -14.89982      -16.48867
N         32.60489      -18.61239      -18.34466
H         31.76276      -19.08787      -18.66439
C         31.86999      -13.47815      -15.57888
C         30.51027      -13.74652      -15.80574
H         32.15754      -12.57341      -15.04824
H         33.90256      -14.13238      -15.85424
H         29.75860      -13.04980      -15.44233
H         29.05870      -15.10311      -16.63653
