138

C         28.05736      -19.83371      -15.92226
C         27.57014      -20.94660      -16.87079
C         28.57099      -21.14574      -18.01709
C         28.87500      -19.80582      -18.71606
C         29.34136      -18.79771      -17.64499
C         29.71305      -17.43376      -18.26693
O         27.39770      -22.20311      -16.18377
O         28.01389      -22.11124      -18.92757
O         29.90979      -20.00350      -19.69190
O         28.29114      -18.62868      -16.66778
H         27.28200      -19.63209      -15.17769
H         26.59335      -20.67150      -17.28770
H         29.49538      -21.60056      -17.63811
H         27.96524      -19.41840      -19.19501
H         30.22453      -19.19905      -17.13828
H         27.20312      -22.84018      -16.90412
H         28.75765      -22.42034      -19.49535
C         31.59174      -20.91496      -12.25864
C         30.77567      -22.16210      -12.59472
C         30.01302      -21.91765      -13.88802
C         29.23869      -20.58678      -13.92033
C         29.91093      -19.43609      -13.12304
C         28.89050      -18.42385      -12.56948
O         31.63304      -23.30536      -12.77106
O         29.11943      -23.03036      -14.10049
O         29.27180      -20.24549      -15.31533
O         30.69045      -19.84796      -11.97750
O         28.00225      -17.92847      -13.55401
H         32.18922      -21.09500      -11.35879
H         30.07977      -22.39706      -11.78047
H         30.71679      -21.97165      -14.73001
H         28.21077      -20.76021      -13.57848
H         30.56925      -18.87965      -13.80425
H         28.29678      -18.88079      -11.76982
H         29.42735      -17.58031      -12.11846
H         31.03413      -24.00183      -13.11635
H         28.54263      -22.78148      -14.85943
H         27.76964      -17.01718      -13.30391
C         36.18603      -19.80282      -14.69850
C         35.91582      -21.27183      -14.36697
C         34.41641      -21.48690      -14.17362
C         33.81984      -20.49614      -13.15500
C         34.31224      -19.05126      -13.41553
C         34.00912      -18.11060      -12.23264
O         36.41142      -22.13230      -15.41087
O         34.23230      -22.84650      -13.73217
O         32.40600      -20.53625      -13.35774
O         35.73122      -18.98010      -13.62840
O         32.65459      -17.69485      -12.15650
H         37.27027      -19.66600      -14.77761
H         36.44453      -21.54990      -13.44678
H         33.89323      -21.41889      -15.13581
H         34.09816      -20.82063      -12.14473
H         33.78764      -18.65445      -14.29212
H         34.28978      -18.57455      -11.28054
H         34.61563      -17.20198      -12.32115
H         36.00369      -23.00276      -15.21545
H         32.09070      -18.48679      -12.09578
C         36.96223      -17.66542      -19.46115
C         37.89141      -18.69384      -18.78268
C         37.10520      -19.53942      -17.77231
C         36.33997      -18.63520      -16.78590
C         35.44833      -17.68373      -17.61365
C         34.56390      -16.79564      -16.71893
O         38.51590      -19.57943      -19.73320
O         38.03262      -20.40928      -17.09862
O         35.53785      -19.45322      -15.92709
O         36.30237      -16.87374      -18.45677
H         37.55870      -16.99455      -20.08414
H         38.69802      -18.16556      -18.25919
H         36.41098      -20.20719      -18.29906
H         37.04844      -18.03874      -16.19478
H         34.81147      -18.27261      -18.26246
H         38.99327      -20.22734      -19.17119
H         37.49104      -21.10160      -16.65395
C         34.03701      -19.26207      -23.43182
C         35.23030      -20.20062      -23.26088
C         35.89438      -19.92044      -21.92252
C         36.16500      -18.42927      -21.64614
C         35.16284      -17.45269      -22.32440
C         35.82136      -16.11756      -22.71871
O         34.81781      -21.57910      -23.29235
O         37.11792      -20.68305      -21.86669
O         35.97382      -18.33987      -20.22352
O         34.53675      -17.93209      -23.53510
O         36.48551      -15.48465      -21.63989
H         33.51463      -19.49654      -24.36523
H         35.94815      -20.05842      -24.07776
H         35.27293      -20.34994      -21.12463
H         37.20021      -18.18852      -21.91766
H         34.37034      -17.21333      -21.60259
H         36.54518      -16.27466      -23.52648
H         35.05497      -15.43723      -23.10948
H         35.62641      -22.07568      -23.04105
H         37.61892      -20.34869      -21.08749
H         36.54391      -14.53686      -21.85369
C         29.40382      -20.28318      -21.00364
C         30.16727      -21.45114      -21.63040
C         31.63930      -21.08272      -21.79814
C         31.81497      -19.74936      -22.55002
C         30.85733      -18.66174      -21.99693
C         30.77115      -17.43967      -22.93307
O         30.04449      -22.64006      -20.82609
O         32.25866      -22.16759      -22.51552
O         33.16088      -19.32578      -22.31560
O         29.51012      -19.13765      -21.84278
O         31.92881      -16.62031      -22.93325
H         28.34373      -20.55759      -20.96203
H         29.73939      -21.68721      -22.61291
H         32.14034      -21.04959      -20.82261
H         31.62044      -19.91535      -23.61686
H         31.23532      -18.30859      -21.02979
H         30.56339      -17.75338      -23.96230
H         29.92903      -16.80611      -22.63184
H         30.71823      -23.24860      -21.19833
H         33.19449      -21.91759      -22.68904
H         32.70270      -17.17968      -23.12388
C         31.06848      -15.69420      -17.04269
C         32.44104      -15.51056      -16.68167
N         30.95658      -16.91054      -17.72597
N         33.18645      -16.61649      -17.17088
C         32.24668      -17.51937      -17.75975
H         35.06073      -15.82027      -16.65496
H         34.52067      -17.18605      -15.70064
H         28.88243      -16.73383      -18.13004
H         29.85213      -17.51962      -19.34806
H         33.28163      -22.95828      -13.50424
C         32.84114      -14.40167      -15.96189
C         30.11067      -14.76775      -16.68239
N         32.44571      -18.76496      -18.22697
H         31.70266      -19.25562      -18.71109
C         31.86797      -13.46365      -15.60118
C         30.52023      -13.64453      -15.95744
H         32.15764      -12.58259      -15.03350
H         33.87211      -14.24241      -15.67328
H         29.78414      -12.90154      -15.65905
H         29.06583      -14.89795      -16.93280
H         33.30692      -19.26765      -18.09342
