137

C         28.05061      -19.99105      -15.93271
C         27.48490      -20.97657      -16.97446
C         28.51268      -21.20945      -18.08838
C         28.93903      -19.85829      -18.69518
C         29.47985      -18.96607      -17.55543
C         29.93883      -17.59608      -18.09957
O         27.14191      -22.24074      -16.37529
O         27.92155      -22.08168      -19.06732
O         29.96175      -20.06423      -19.67917
O         28.44812      -18.76988      -16.56649
H         27.26263      -19.78286      -15.20367
H         26.56492      -20.56695      -17.40969
H         29.38353      -21.75288      -17.70007
H         28.07092      -19.36310      -19.15217
H         30.33321      -19.46184      -17.07875
H         26.96215      -22.82856      -17.13799
H         28.66591      -22.43697      -19.60637
C         31.59961      -20.69544      -12.24929
C         30.79277      -21.98721      -12.36116
C         30.01336      -21.95108      -13.66352
C         29.20461      -20.65897      -13.88409
C         29.85841      -19.38275      -13.28501
C         28.82131      -18.35788      -12.77945
O         31.66028      -23.13499      -12.37366
O         29.13958      -23.09822      -13.71560
O         29.17403      -20.60326      -15.32083
O         30.69851      -19.60234      -12.12761
O         27.85932      -17.98141      -13.74382
H         32.21295      -20.71918      -11.34229
H         30.11215      -22.09616      -11.50860
H         30.71407      -22.11150      -14.49502
H         28.19029      -20.80681      -13.49235
H         30.45877      -18.89321      -14.06303
H         28.29257      -18.75959      -11.90702
H         29.34418      -17.45543      -12.43985
H         31.06706      -23.88536      -12.59152
H         28.61442      -22.99626      -14.53861
H         27.41164      -17.18522      -13.40816
C         36.21565      -19.90960      -14.75603
C         35.88078      -21.36362      -14.41463
C         34.37091      -21.51468      -14.23146
C         33.81198      -20.48367      -13.23035
C         34.35002      -19.06552      -13.53141
C         34.03521      -18.06562      -12.40304
O         36.35225      -22.25535      -15.44284
O         34.12873      -22.85938      -13.76935
O         32.39355      -20.49160      -13.40780
O         35.77761      -19.05627      -13.70035
O         32.71993      -17.53161      -12.46627
H         37.30513      -19.81704      -14.82892
H         36.38818      -21.65392      -13.48630
H         33.85457      -21.43992      -15.19666
H         34.09804      -20.79983      -12.21923
H         33.86477      -18.69307      -14.44099
H         34.18355      -18.52122      -11.41793
H         34.72393      -17.21505      -12.45805
H         35.88152      -23.09681      -15.26519
H         32.08849      -18.27384      -12.47565
C         37.04429      -17.73932      -19.49732
C         37.93887      -18.81274      -18.84352
C         37.12355      -19.65402      -17.85275
C         36.40157      -18.74327      -16.84229
C         35.53540      -17.74387      -17.64073
C         34.71624      -16.82483      -16.71321
O         38.54028      -19.69353      -19.81322
O         38.01959      -20.57347      -17.19998
O         35.58902      -19.55038      -15.98802
O         36.41665      -16.94540      -18.47444
H         37.66050      -17.07515      -20.10950
H         38.76063      -18.32269      -18.30644
H         36.40324      -20.28294      -18.39181
H         37.14004      -18.18379      -16.25141
H         34.87547      -18.30185      -18.29521
H         38.97070      -20.38396      -19.26391
H         37.44714      -21.23584      -16.74861
C         34.03910      -19.19385      -23.46495
C         35.24032      -20.13021      -23.34811
C         35.92987      -19.89112      -22.01444
C         36.19615      -18.40823      -21.69463
C         35.16945      -17.41872      -22.31226
C         35.80168      -16.05716      -22.65557
O         34.83280      -21.50925      -23.41860
O         37.16111      -20.64347      -22.01381
O         36.03289      -18.36239      -20.26928
O         34.52566      -17.85574      -23.53007
O         36.47778      -15.46546      -21.56049
H         33.50149      -19.40048      -24.39631
H         35.94123      -19.95680      -24.17362
H         35.32967      -20.35317      -21.21854
H         37.22237      -18.14875      -21.98239
H         34.38756      -17.22219      -21.56615
H         36.51141      -16.16519      -23.48346
H         35.01814      -15.37063      -22.99861
H         35.64425      -22.00899      -23.18335
H         37.65642      -20.35906      -21.21100
H         36.53320      -14.51023      -21.73741
C         29.44107      -20.27429      -20.99910
C         30.18026      -21.42421      -21.68568
C         31.65495      -21.06576      -21.85709
C         31.83221      -19.70664      -22.56154
C         30.90036      -18.63059      -21.94857
C         30.80818      -17.37186      -22.83392
O         30.04552      -22.64389      -20.93125
O         32.25736      -22.12473      -22.62586
O         33.18567      -19.30758      -22.33602
O         29.55059      -19.09141      -21.78311
O         31.96696      -16.55517      -22.80788
H         28.37726      -20.53214      -20.96071
H         29.73793      -21.61160      -22.67220
H         32.16820      -21.07469      -20.88740
H         31.61595      -19.82988      -23.62996
H         31.30427      -18.32174      -20.97718
H         30.59020      -17.64159      -23.87342
H         29.97062      -16.74942      -22.49856
H         30.72335      -23.23885      -21.31759
H         33.19667      -21.87827      -22.78663
H         32.72856      -17.09638      -23.08429
C         31.20455      -15.85836      -16.73304
C         32.50568      -15.60849      -16.46977
N         31.12795      -17.08703      -17.41325
N         33.28012      -16.66389      -17.00632
C         32.41875      -17.62221      -17.56909
H         35.18376      -15.83259      -16.74195
H         34.79562      -17.15532      -15.67501
H         29.10820      -16.88587      -18.02181
H         30.18308      -17.64824      -19.16341
H         33.20526      -22.89699      -13.43577
C         33.10784      -14.45032      -15.75216
H         32.35773      -13.73517      -15.40553
H         33.79252      -13.90778      -16.41220
H         33.66618      -14.79100      -14.87436
C         30.00431      -15.05292      -16.37806
H         29.28416      -15.66478      -15.82489
H         29.51816      -14.67271      -17.28212
H         30.24756      -14.19233      -15.74997
N         32.73362      -18.74435      -18.11057
H         31.90529      -19.21714      -18.46759
