131

C         28.05980      -20.11293      -15.93113
C         27.46791      -21.04870      -17.00353
C         28.49810      -21.30067      -18.10577
C         28.96003      -19.95179      -18.68099
C         29.55924      -19.10534      -17.52851
C         30.00776      -17.73077      -18.07031
O         27.04544      -22.30702      -16.44672
O         27.88600      -22.13455      -19.10730
O         29.93221      -20.17947      -19.70495
O         28.53987      -18.89991      -16.52041
H         27.25563      -19.88603      -15.22577
H         26.57692      -20.58403      -17.44394
H         29.34859      -21.87750      -17.72117
H         28.09590      -19.41455      -19.09742
H         30.39116      -19.64449      -17.07647
H         26.90490      -22.88191      -17.22677
H         28.61800      -22.45334      -19.68417
C         31.59780      -20.42205      -12.25842
C         30.86990      -21.76133      -12.22119
C         30.08234      -21.89761      -13.51102
C         29.18707      -20.68763      -13.84392
C         29.75409      -19.31887      -13.36244
C         28.64813      -18.34691      -12.89270
O         31.79383      -22.85848      -12.12612
O         29.29224      -23.10256      -13.44266
O         29.11426      -20.79854      -15.27731
O         30.62146      -19.39098      -12.20719
O         27.71741      -17.98865      -13.89379
H         32.23667      -20.30743      -11.37604
H         30.20210      -21.81784      -11.35353
H         30.78574      -22.08693      -14.33394
H         28.18950      -20.86591      -13.42258
H         30.30394      -18.84256      -14.18372
H         28.09399      -18.78569      -12.05454
H         29.11315      -17.42985      -12.51016
H         31.23071      -23.65649      -12.22574
H         28.78679      -23.12774      -14.28233
H         27.33660      -17.12936      -13.64238
C         36.19208      -20.17494      -14.93042
C         35.64352      -21.58096      -14.66934
C         34.13045      -21.52859      -14.44831
C         33.75867      -20.49613      -13.36270
C         34.47284      -19.15499      -13.63550
C         34.28297      -18.15227      -12.48549
O         35.96339      -22.47072      -15.75315
O         33.72895      -22.86345      -14.08334
O         32.35184      -20.26179      -13.45192
O         35.88110      -19.31645      -13.83577
O         33.03977      -17.46409      -12.54438
H         37.28115      -20.24020      -14.98195
H         36.11637      -21.99899      -13.77206
H         33.60390      -21.31116      -15.38529
H         34.04157      -20.90236      -12.38336
H         34.02535      -18.70652      -14.52753
H         34.36366      -18.64949      -11.51295
H         35.07204      -17.39257      -12.51425
H         35.32991      -23.21284      -15.65396
H         32.35022      -18.08333      -12.85118
C         37.27025      -17.80511      -19.50779
C         38.25847      -18.68226      -18.72195
C         37.47082      -19.60934      -17.78780
C         36.53957      -18.78926      -16.86712
C         35.67638      -17.83201      -17.72853
C         34.81948      -16.90549      -16.83941
O         39.06874      -19.48384      -19.60029
O         38.42149      -20.39713      -17.04884
O         35.65334      -19.66604      -16.15582
O         36.51261      -17.02227      -18.57909
H         37.83295      -17.14935      -20.17869
H         38.93891      -18.05234      -18.13525
H         36.88916      -20.33402      -18.37168
H         37.13983      -18.20466      -16.15670
H         35.00442      -18.42342      -18.36114
H         39.56681      -20.07414      -18.99833
H         37.95856      -21.22920      -16.81685
C         34.00335      -19.10641      -23.35889
C         35.18565      -20.07401      -23.36807
C         35.91741      -19.95961      -22.04268
C         36.27814      -18.51578      -21.63816
C         35.17809      -17.48790      -22.01399
C         35.71697      -16.05751      -22.21142
O         34.73851      -21.43177      -23.53798
O         37.10889      -20.77186      -22.10311
O         36.40371      -18.67051      -20.22066
O         34.49868      -17.77460      -23.26188
O         36.29479      -15.49994      -21.04908
H         33.45662      -19.19215      -24.30366
H         35.86544      -19.84590      -24.19721
H         35.30702      -20.43301      -21.26036
H         37.24687      -18.25075      -22.07959
H         34.43783      -17.45222      -21.20368
H         36.46329      -16.03940      -23.01344
H         34.89564      -15.40556      -22.53319
H         35.53480      -21.97381      -23.35034
H         37.61130      -20.57298      -21.28445
H         36.23984      -14.53193      -21.13088
C         29.37385      -20.26319      -21.01928
C         30.06195      -21.38226      -21.80299
C         31.55087      -21.06956      -21.93577
C         31.78921      -19.66225      -22.51713
C         30.89349      -18.60476      -21.82753
C         30.85912      -17.27012      -22.59718
O         29.87554      -22.65420      -21.15379
O         32.12600      -22.07668      -22.79137
O         33.15835      -19.34981      -22.24478
O         29.52571      -19.02868      -21.71441
O         32.03424      -16.48835      -22.45150
H         28.30160      -20.48438      -20.97682
H         29.61696      -21.46650      -22.80217
H         32.05487      -21.18375      -20.96778
H         31.58186      -19.68902      -23.59401
H         31.30248      -18.39723      -20.83227
H         30.67531      -17.43720      -23.66438
H         30.02422      -16.65938      -22.23475
H         30.53275      -23.24163      -21.58284
H         33.07167      -21.84156      -22.92766
H         32.78546      -17.00635      -22.79309
C         31.50610      -15.78034      -17.69101
C         32.81284      -15.56757      -17.52749
N         31.23954      -17.14110      -17.52826
N         33.43266      -16.78677      -17.28839
C         32.46055      -17.80760      -17.29768
H         30.72139      -15.07779      -17.93113
H         33.37116      -14.64449      -17.58005
N         32.63665      -19.07095      -17.12906
H         33.62378      -19.26864      -16.96209
H         35.28128      -15.90966      -16.81634
H         34.80445      -17.24379      -15.80265
H         29.18957      -17.01892      -17.89263
H         30.13322      -17.76551      -19.15383
H         32.95529      -22.79531      -13.48416
