158

H        -31.74548      -29.67459      -13.48917
C        -21.47458      -26.92165       -9.65176
C        -21.77568      -27.65022       -8.33959
C        -23.27659      -27.91554       -8.24195
C        -24.11177      -26.64189       -8.47123
C        -23.58810      -25.82353       -9.68230
C        -24.16699      -24.39759       -9.71788
O        -21.06686      -28.90330       -8.27697
O        -23.53394      -28.47194       -6.93805
O        -25.44305      -27.09058       -8.74492
O        -22.15383      -25.66956       -9.65959
O        -25.54137      -24.36690      -10.06608
H        -20.39798      -26.72867       -9.71028
H        -21.44665      -27.04604       -7.48545
H        -23.56565      -28.69994       -8.95369
H        -24.07123      -26.01859       -7.56900
H        -23.89256      -26.31971      -10.61323
H        -24.03681      -23.90634       -8.74713
H        -23.62166      -23.79572      -10.45380
H        -21.45618      -29.36003       -7.50157
H        -24.46690      -28.79039       -6.94781
H        -25.81011      -23.43295      -10.09119
C        -20.87073      -29.11974      -14.43654
C        -20.18122      -29.82429      -13.26366
C        -20.89177      -29.45536      -11.96557
C        -20.99784      -27.92967      -11.80324
C        -21.54391      -27.26777      -13.08656
C        -21.42366      -25.73276      -13.03743
O        -20.18369      -31.25196      -13.44801
O        -21.91770      -27.73413      -10.73107
O        -20.83285      -27.70560      -14.25652
O        -22.70980      -25.13337      -12.89999
H        -20.29894      -29.34157      -15.34410
H        -19.13132      -29.51178      -13.20494
H        -19.99938      -27.54033      -11.56621
H        -22.60334      -27.52213      -13.19924
H        -20.79996      -25.39721      -12.20329
H        -20.98522      -25.34383      -13.96305
H        -19.95086      -31.61009      -12.56547
H        -22.56974      -24.17315      -12.84055
C        -24.17660      -30.81783      -18.10534
C        -22.73138      -31.30031      -17.87284
C        -22.34175      -31.17017      -16.39804
C        -22.63363      -29.73447      -15.91715
C        -24.15406      -29.50877      -16.09962
C        -24.61066      -28.17339      -15.47943
O        -22.54944      -32.66871      -18.28761
O        -20.95365      -31.52528      -16.27277
O        -22.22402      -29.58369      -14.55778
O        -24.41430      -29.52985      -17.52031
H        -24.33048      -30.72958      -19.18520
H        -22.04693      -30.69018      -18.47560
H        -22.88708      -31.90391      -15.79074
H        -22.09368      -29.01384      -16.54796
H        -24.69210      -30.31936      -15.59888
H        -21.64624      -32.89406      -17.97981
H        -20.78148      -31.63700      -15.30968
C        -28.35688      -33.98622      -18.27007
C        -27.05315      -34.79354      -18.27792
C        -25.92091      -33.91491      -17.75389
C        -25.83461      -32.54748      -18.46079
C        -27.22913      -31.92494      -18.71349
C        -27.23032      -30.83256      -19.79901
O        -27.16371      -35.97174      -17.46102
O        -24.68213      -34.64060      -17.91150
O        -25.08265      -31.74971      -17.53771
O        -28.19794      -32.89356      -19.16417
O        -26.48600      -29.67018      -19.49062
H        -29.17434      -34.62480      -18.62270
H        -26.82059      -35.12875      -19.29596
H        -26.02835      -33.77884      -16.66963
H        -25.28646      -32.68142      -19.40248
H        -27.58543      -31.45689      -17.78811
H        -26.84802      -31.24088      -20.74178
H        -28.26035      -30.51937      -20.00475
H        -26.23918      -36.27486      -17.34553
H        -23.96102      -33.97383      -17.85522
H        -26.58743      -29.46571      -18.53837
C        -31.43357      -31.89006      -14.48668
C        -31.21293      -33.39491      -14.32173
C        -29.95730      -33.79630      -15.07910
C        -29.98455      -33.35147      -16.55508
C        -30.43737      -31.87697      -16.67389
C        -30.85197      -31.47149      -18.09649
O        -31.08305      -33.74753      -12.93189
O        -29.81194      -35.22830      -15.00079
O        -28.61837      -33.53338      -16.94931
O        -31.59529      -31.58235      -15.86280
O        -30.84529      -30.04348      -18.19976
H        -32.37058      -31.63301      -13.97942
H        -32.07355      -33.94871      -14.71641
H        -29.07217      -33.39233      -14.56965
H        -30.64829      -34.02011      -17.11708
H        -29.61675      -31.22269      -16.36258
H        -30.18962      -31.85268      -18.86566
H        -31.86966      -31.81105      -18.31674
H        -30.73190      -34.66345      -12.94854
H        -29.00733      -35.44143      -15.51992
H        -31.08882      -29.82074      -19.11466
C        -30.29861      -28.01551      -11.10200
C        -31.19734      -29.23436      -10.80780
C        -30.81394      -30.43317      -11.67696
C        -30.75730      -30.02350      -13.15843
C        -29.75440      -28.85978      -13.28557
O        -31.14431      -29.63431       -9.42603
O        -31.78802      -31.46577      -11.44172
O        -30.33475      -31.14874      -13.93732
O        -30.24197      -27.74655      -12.50891
H        -30.74887      -27.14016      -10.62406
H        -32.23984      -28.96465      -11.02049
H        -29.85299      -30.85061      -11.35024
H        -31.68631      -30.45191       -9.39176
H        -31.42720      -32.29431      -11.83496
C        -26.39900      -26.89091       -7.70988
C        -27.10704      -28.20991       -7.38364
C        -27.81935      -28.73851       -8.62695
C        -28.71011      -27.67736       -9.30865
C        -27.98050      -26.31254       -9.39283
C        -28.90020      -25.13955       -9.76944
O        -26.17997      -29.20308       -6.90381
O        -28.59346      -29.88707       -8.21624
O        -28.97484      -28.21337      -10.61807
O        -27.38326      -25.94882       -8.13115
O        -29.35529      -25.16702      -11.11331
H        -25.92841      -26.50926       -6.79722
H        -27.84132      -28.04896       -6.58450
H        -27.08658      -29.13305       -9.34228
H        -29.63565      -27.58064       -8.72636
H        -27.21084      -26.37710      -10.17194
H        -29.77476      -25.11310       -9.10982
H        -28.37645      -24.18891       -9.61828
H        -26.69484      -30.03852       -6.93181
H        -29.40343      -29.90123       -8.77160
H        -28.59493      -25.39378      -11.68224
C        -27.85052      -26.61653      -15.00591
C        -26.48087      -26.56045      -15.34396
N        -28.23198      -27.95664      -15.02477
N        -26.04199      -27.87791      -15.59813
C        -27.10543      -28.74197      -15.29199
H        -24.03552      -27.38109      -15.97285
H        -24.35651      -28.16050      -14.41465
C        -28.55919      -25.47253      -14.69759
C        -25.80665      -25.35481      -15.37871
C        -29.58867      -28.40881      -14.75231
H        -28.77513      -29.17609      -12.90259
H        -30.31915      -27.62759      -14.99418
H        -29.80316      -29.22695      -15.44241
O        -20.14887      -30.02328      -10.86846
H        -21.88234      -29.92540      -11.92211
H        -20.57673      -29.70659      -10.04063
N        -27.04890      -30.02896      -15.24059
H        -27.96139      -30.39524      -14.96853
C        -26.52125      -24.19132      -15.07532
C        -27.88369      -24.24959      -14.73715
H        -26.01562      -23.22900      -15.10095
H        -24.75630      -25.29174      -15.63519
H        -28.41905      -23.33302      -14.49954
H        -29.60533      -25.50680      -14.41519
