159

H        -31.71125      -29.66508      -13.44087
C        -21.56246      -26.82806       -9.77333
C        -21.81484      -27.55658       -8.44996
C        -23.30263      -27.87598       -8.31404
C        -24.18441      -26.63356       -8.53253
C        -23.73697      -25.83953       -9.78857
C        -24.39596      -24.44756       -9.85688
O        -21.06272      -28.78372       -8.39265
O        -23.50663      -28.42626       -7.00021
O        -25.51729      -27.11617       -8.72970
O        -22.31326      -25.61502       -9.80341
O        -25.73301      -24.48472      -10.34731
H        -20.50092      -26.56703       -9.83833
H        -21.48988      -26.93266       -7.60850
H        -23.58214      -28.67513       -9.01288
H        -24.11498      -25.98491       -7.65007
H        -24.03317      -26.38714      -10.69297
H        -24.39485      -23.97299       -8.86908
H        -23.82416      -23.79419      -10.52544
H        -21.38194      -29.22341       -7.57549
H        -24.42995      -28.76854       -6.96727
H        -26.10994      -23.60616      -10.15886
C        -20.77246      -29.25953      -14.43019
C        -20.09388      -29.88094      -13.20510
C        -20.82597      -29.45133      -11.93507
C        -20.97202      -27.92133      -11.85656
C        -21.49083      -27.34797      -13.18980
C        -21.43726      -25.81082      -13.22650
O        -20.08204      -31.31551      -13.31147
O        -20.08365      -29.94558      -10.80627
O        -21.95591      -27.67645      -10.84721
O        -20.77229      -27.83696      -14.32986
O        -22.73621      -25.26283      -12.99866
H        -20.18371      -29.52608      -15.31456
H        -19.04867      -29.55239      -13.15153
H        -21.80680      -29.93995      -11.87685
H        -19.99624      -27.48909      -11.60260
H        -22.53790      -27.63612      -13.28568
H        -20.75368      -25.41180      -12.47052
H        -21.10597      -25.45128      -14.20653
H        -19.79243      -31.62246      -12.42597
H        -20.50790      -29.58812       -9.99233
H        -22.60231      -24.32231      -12.78324
C        -24.23700      -30.92328      -18.02340
C        -22.78766      -31.44300      -17.86092
C        -22.30001      -31.31340      -16.41471
C        -22.54401      -29.87862      -15.91185
C        -24.06730      -29.63717      -16.00832
C        -24.47008      -28.28840      -15.39421
O        -22.67098      -32.81883      -18.26962
O        -20.91222      -31.67163      -16.36825
O        -22.11466      -29.76203      -14.55369
O        -24.45634      -29.65843      -17.38432
H        -24.42170      -30.78249      -19.09179
H        -22.12470      -30.85690      -18.51009
H        -22.81379      -32.04395      -15.77651
H        -22.01361      -29.15599      -16.54720
H        -24.56069      -30.43567      -15.45767
H        -21.73619      -33.05431      -18.08499
H        -20.68029      -31.80165      -15.42192
C        -28.41110      -33.98146      -18.33662
C        -27.17645      -34.87527      -18.20868
C        -26.01303      -34.03073      -17.69152
C        -25.82228      -32.69768      -18.44525
C        -27.15510      -32.04640      -18.90993
C        -26.97224      -31.08145      -20.09592
O        -27.43400      -35.94276      -17.27777
O        -24.81256      -34.82504      -17.75349
O        -25.17025      -31.84658      -17.47085
O        -28.14972      -32.99560      -19.32561
O        -26.61575      -29.77491      -19.66119
H        -29.27137      -34.58503      -18.64571
H        -26.92350      -35.32865      -19.17418
H        -26.15486      -33.83627      -16.62009
H        -25.16069      -32.88204      -19.30155
H        -27.55745      -31.45813      -18.07631
H        -26.20178      -31.44136      -20.78605
H        -27.89634      -30.99314      -20.67866
H        -26.56937      -36.39045      -17.16791
H        -24.04992      -34.20620      -17.75955
H        -27.38190      -29.42361      -19.17127
C        -31.39414      -31.82952      -14.52103
C        -31.19577      -33.34669      -14.42127
C        -29.95967      -33.74860      -15.21026
C        -29.99054      -33.21448      -16.65069
C        -30.36633      -31.71993      -16.68137
C        -30.65851      -31.20617      -18.10443
O        -31.04427      -33.74651      -13.04702
O        -29.85632      -35.18246      -15.21566
O        -28.63621      -33.36355      -17.07462
O        -31.52237      -31.42503      -15.88111
O        -29.81723      -30.08133      -18.40371
H        -32.33558      -31.58673      -14.01487
H        -32.07404      -33.86863      -14.81993
H        -29.05864      -33.39909      -14.68841
H        -30.68428      -33.81709      -17.24948
H        -29.51899      -31.14682      -16.28935
H        -30.48120      -31.96558      -18.86888
H        -31.69522      -30.86332      -18.19401
H        -30.78780      -34.69311      -13.09417
H        -29.07815      -35.41571      -15.76838
H        -30.11634      -29.75809      -19.27516
C        -30.31540      -28.08684      -10.98332
C        -31.22147      -29.31449      -10.73250
C        -30.83291      -30.49295      -11.63138
C        -30.73581      -30.03572      -13.09651
C        -29.72065      -28.88471      -13.16174
C        -29.49109      -28.39874      -14.60726
O        -31.16964      -29.74719       -9.36108
O        -31.82159      -31.52056      -11.46505
O        -30.29041      -31.12763      -13.91466
O        -30.20677      -27.78510      -12.38224
H        -30.77239      -27.21748      -10.50143
H        -32.26202      -29.03686      -10.94378
H        -29.88485      -30.93194      -11.29523
H        -28.75543      -29.22117      -12.76165
H        -31.74824      -30.53943       -9.32848
H        -31.45513      -32.35030      -11.84924
C        -26.42066      -26.91622       -7.64394
C        -27.09968      -28.23875       -7.26900
C        -27.84515      -28.79669       -8.47933
C        -28.76102      -27.75961       -9.16049
C        -28.07706      -26.37273       -9.25814
C        -29.05100      -25.23461       -9.60259
O        -26.13597      -29.20793       -6.81724
O        -28.60116      -29.94487       -8.03944
O        -29.00497      -28.30774      -10.47279
O        -27.43333      -25.98892       -8.03045
O        -29.30044      -25.15133      -11.00115
H        -25.90801      -26.51811       -6.76149
H        -27.80460      -28.07579       -6.44429
H        -27.12640      -29.19759       -9.20536
H        -29.69196      -27.69111       -8.58267
H        -27.33677      -26.41719      -10.06555
H        -30.00609      -25.35835       -9.08131
H        -28.64524      -24.26732       -9.28494
H        -26.65170      -30.03865       -6.73273
H        -29.42559      -29.97888       -8.57210
H        -28.43463      -25.00457      -11.42198
C        -27.68774      -26.61946      -14.91764
C        -26.35493      -26.62651      -15.15589
N        -28.10653      -27.93332      -14.83542
N        -25.91702      -27.95764      -15.22403
C        -27.01236      -28.73147      -15.00246
N        -27.07193      -30.06278      -14.88542
H        -24.01897      -27.51831      -16.02648
H        -24.05977      -28.20236      -14.39154
H        -30.19878      -27.60859      -14.87445
H        -29.65930      -29.19342      -15.33524
H        -26.27335      -30.66177      -14.98920
H        -27.95016      -30.52347      -14.68711
C        -28.54638      -25.42453      -14.69460
H        -28.14663      -24.82261      -13.87133
H        -29.57460      -25.67515      -14.43044
H        -28.57675      -24.80251      -15.59459
C        -25.48167      -25.42408      -15.28052
H        -25.09409      -25.13850      -14.29894
H        -26.04079      -24.57311      -15.68434
H        -24.63962      -25.57676      -15.95794
