158

H        -31.70416      -29.65205      -13.46774
C        -21.49890      -26.87704       -9.73625
C        -21.76479      -27.57897       -8.40111
C        -23.25512      -27.89452       -8.28162
C        -24.13139      -26.65167       -8.52509
C        -23.65790      -25.86230       -9.77516
C        -24.28792      -24.45886       -9.85185
O        -21.00864      -28.80132       -8.30416
O        -23.48236      -28.43261       -6.96423
O        -25.45949      -27.14005       -8.73793
O        -22.22950      -25.65433       -9.77286
O        -25.65860      -24.47956      -10.21883
H        -20.43206      -26.63824       -9.80296
H        -21.45375      -26.93648       -7.56821
H        -23.52582      -28.70095       -8.97553
H        -24.07822      -25.99764       -7.64544
H        -23.95445      -26.40530      -10.68220
H        -24.18808      -23.94207       -8.89082
H        -23.75562      -23.85272      -10.59347
H        -21.37638      -29.24687       -7.51183
H        -24.40430      -28.78139       -6.95821
H        -25.96574      -23.55691      -10.21791
C        -20.81875      -29.22993      -14.44189
C        -20.09582      -29.86490      -13.25075
C        -20.80616      -29.46919      -11.95918
C        -20.96644      -27.94203      -11.84927
C        -21.51585      -27.33676      -13.15999
C        -21.41230      -25.80041      -13.17298
O        -20.05164      -31.29677      -13.38364
O        -21.90532      -27.73840      -10.79257
O        -20.80722      -27.80931      -14.31679
O        -22.65977      -25.20232      -12.83944
H        -20.25482      -29.47841      -15.34757
H        -19.05641      -29.51551      -13.21584
H        -19.98362      -27.51412      -11.61353
H        -22.57249      -27.60152      -13.25726
H        -20.65700      -25.44048      -12.46693
H        -21.13610      -25.43820      -14.16939
H        -19.79385      -31.61549      -12.49352
H        -22.52162      -24.24003      -12.83948
C        -24.22178      -30.87381      -18.05313
C        -22.77594      -31.38005      -17.85941
C        -22.35001      -31.28530      -16.39174
C        -22.61800      -29.85967      -15.87586
C        -24.14332      -29.62215      -16.01196
C        -24.55242      -28.30828      -15.32063
O        -22.61307      -32.74088      -18.30616
O        -20.96110      -31.64941      -16.30334
O        -22.16111      -29.73465      -14.52761
O        -24.43574      -29.59891      -17.42629
H        -24.38736      -30.74774      -19.12643
H        -22.09847      -30.76386      -18.46408
H        -22.88595      -32.02833      -15.78761
H        -22.09247      -29.13230      -16.51141
H        -24.67689      -30.44532      -15.52691
H        -21.70220      -32.97612      -18.03015
H        -20.76342      -31.75252      -15.34541
C        -28.37373      -34.03380      -18.29920
C        -27.09155      -34.86964      -18.24778
C        -25.95811      -33.99361      -17.71967
C        -25.82993      -32.64328      -18.45594
C        -27.20225      -32.01843      -18.81929
C        -27.11722      -31.00932      -19.98063
O        -27.25581      -36.01285      -17.38964
O        -24.72805      -34.74306      -17.82414
O        -25.13461      -31.81558      -17.51057
O        -28.17523      -32.99293      -19.24581
O        -26.51260      -29.77331      -19.64358
H        -29.20547      -34.66727      -18.62681
H        -26.83970      -35.24799      -19.24568
H        -26.09039      -33.82897      -16.64210
H        -25.22073      -32.80080      -19.35543
H        -27.59110      -31.47909      -17.94732
H        -26.56229      -31.44327      -20.82056
H        -28.12048      -30.79103      -20.36395
H        -26.34355      -36.33480      -17.23601
H        -23.99982      -34.08457      -17.77464
H        -26.84033      -29.49429      -18.76539
C        -31.41061      -31.82947      -14.53496
C        -31.24143      -33.34617      -14.40629
C        -29.98679      -33.77238      -15.15066
C        -29.98196      -33.29003      -16.61211
C        -30.35005      -31.79198      -16.69017
C        -30.67396      -31.32229      -18.11906
O        -31.14932      -33.73954      -13.02429
O        -29.88994      -35.20964      -15.10812
O        -28.62410      -33.51152      -17.00273
O        -31.51624      -31.46412      -15.90542
O        -30.17715      -29.99407      -18.30722
H        -32.35576      -31.56136      -14.04861
H        -32.11230      -33.86024      -14.83089
H        -29.09684      -33.40999      -14.61876
H        -30.67420      -33.90620      -17.19903
H        -29.50297      -31.20413      -16.32043
H        -30.23459      -31.95294      -18.88813
H        -31.75580      -31.28893      -18.28742
H        -30.81612      -34.66177      -13.05827
H        -29.07986      -35.43641      -15.61387
H        -30.38013      -29.73839      -19.22377
C        -30.28882      -28.06054      -11.03035
C        -31.20156      -29.27688      -10.77223
C        -30.81601      -30.46272      -11.65849
C        -30.72699      -30.02418      -13.12961
C        -29.70617      -28.87363      -13.21719
O        -31.17031      -29.70086       -9.39667
O        -31.80720      -31.48788      -11.46562
O        -30.31039      -31.14084      -13.92364
O        -30.19820      -27.76871      -12.43093
H        -30.74255      -27.18997      -10.54756
H        -32.23865      -28.99437      -10.99457
H        -29.86681      -30.89903      -11.32225
H        -31.71598      -30.51621       -9.38372
H        -31.45608      -32.30779      -11.88481
C        -26.37977      -26.93564       -7.67061
C        -27.07803      -28.25140       -7.31260
C        -27.82260      -28.79137       -8.53172
C        -28.72347      -27.73766       -9.21103
C        -28.01331      -26.36333       -9.30186
C        -28.96030      -25.19987       -9.63945
O        -26.13440      -29.23640       -6.84867
O        -28.60037      -29.92720       -8.09255
O        -28.97968      -28.28069      -10.51993
O        -27.37878      -25.99654       -8.06033
O        -29.38009      -25.17691      -10.99527
H        -25.87710      -26.55115       -6.77631
H        -27.79020      -28.08339       -6.49503
H        -27.10735      -29.20216       -9.25559
H        -29.65192      -27.65374       -8.63136
H        -27.26815      -26.41606      -10.10427
H        -29.85123      -25.23128       -9.00243
H        -28.47005      -24.24195       -9.43206
H        -26.64877      -30.07220       -6.84350
H        -29.38655      -29.97778       -8.67905
H        -28.60150      -25.37427      -11.54900
C        -27.72873      -26.59765      -14.97923
C        -26.40734      -26.58769      -15.25906
N        -28.14138      -27.93814      -14.91184
N        -25.96795      -27.92417      -15.40149
C        -27.03724      -28.78433      -15.10812
H        -23.94115      -27.50892      -15.75539
H        -24.30419      -28.37185      -14.25692
C        -28.60834      -25.42937      -14.70268
H        -28.06064      -24.63909      -14.17857
H        -29.45360      -25.69185      -14.06174
H        -29.00041      -25.01908      -15.63795
C        -25.50696      -25.41025      -15.39497
H        -24.80115      -25.37319      -14.56043
H        -26.06166      -24.46733      -15.40645
H        -24.94176      -25.46128      -16.33084
C        -29.50533      -28.40794      -14.67651
H        -28.74010      -29.20706      -12.81656
H        -30.23138      -27.62569      -14.92638
H        -29.69749      -29.21722      -15.38307
O        -20.03140      -29.96814      -10.84994
H        -21.77804      -29.97299      -11.88638
H        -20.46440      -29.63914      -10.02969
N        -26.99759      -30.06470      -15.00338
H        -27.92313      -30.41919      -14.76347
